/*--------------------------------*- C++ -*----------------------------------*\
  =========                 |
  \\      /  F ield         | OpenFOAM: The Open Source CFD Toolbox
   \\    /   O peration     | Website:  https://openfoam.org
    \\  /    A nd           | Version:  9
     \\/     M anipulation  |
\*---------------------------------------------------------------------------*/
FoamFile
{
    format      ascii;
    class       volScalarField;
    location    "1";
    object      nut;
}
// * * * * * * * * * * * * * * * * * * * * * * * * * * * * * * * * * * * * * //

dimensions      [0 2 -1 0 0 0 0];

internalField   uniform 4.48e-03;

boundaryField
{
    bottomWall
    {
        type              calculated;
        value             uniform 3.00359e-18;
        //type            fixedValue;
	    //value		$internalField;
    }
    topWall
    {
        type              calculated;
        value             uniform 3.00359e-18;
        //type            fixedValue;
    	//value		$internalField;
    }
    sides1_half0
    {
        type            cyclic;
    }
    sides2_half0
    {
        type            cyclic;
    }
    inout1_half0
    {
        type            cyclic;
    }
    inout2_half0
    {
        type            cyclic;
    }
    sides2_half1
    {
        type            cyclic;
    }
    sides1_half1
    {
        type            cyclic;
    }
    inout1_half1
    {
        type            cyclic;
    }
    inout2_half1
    {
        type            cyclic;
    }
}


// ************************************************************************* //
