/*--------------------------------*- C++ -*----------------------------------*\
  =========                 |
  \\      /  F ield         | OpenFOAM: The Open Source CFD Toolbox
   \\    /   O peration     | Website:  https://openfoam.org
    \\  /    A nd           | Version:  9
     \\/     M anipulation  |
\*---------------------------------------------------------------------------*/
FoamFile
{
    format      ascii;
    class       polyBoundaryMesh;
    location    "constant/polyMesh";
    object      boundary;
}
// * * * * * * * * * * * * * * * * * * * * * * * * * * * * * * * * * * * * * //

6
(
    inlet
    {
        type            cyclic;
        inGroups        List<word> 1(cyclic);
        nFaces          80;
        startFace       79;
        matchTolerance  0.0001;
        neighbourPatch  outlet;
        transformType   translational;
        separation      (-0.1 0 0);
    }
    outlet
    {
        type            cyclic;
        inGroups        List<word> 1(cyclic);
        nFaces          80;
        startFace       159;
        matchTolerance  0.0001;
        neighbourPatch  inlet;
        transformType   translational;
        separation      (0.1 0 0);
    }
    bottom
    {
        type            wall;
        inGroups        List<word> 1(wall);
        nFaces          1;
        startFace       239;
    }
    top
    {
        type            wall;
        inGroups        List<word> 1(wall);
        nFaces          1;
        startFace       240;
    }
    front
    {
        type            cyclic;
        inGroups        List<word> 1(cyclic);
        nFaces          80;
        startFace       241;
        matchTolerance  0.0001;
        neighbourPatch  Back;
        transformType   translational;
        separation      (0 0 -0.1);
    }
    Back
    {
        type            cyclic;
        inGroups        List<word> 1(cyclic);
        nFaces          80;
        startFace       321;
        matchTolerance  0.0001;
        neighbourPatch  front;
        transformType   translational;
        separation      (0 0 0.1);
    }
)

// ************************************************************************* //
