/*--------------------------------*- C++ -*----------------------------------*\
  =========                 |
  \\      /  F ield         | OpenFOAM: The Open Source CFD Toolbox
   \\    /   O peration     | Website:  https://openfoam.org
    \\  /    A nd           | Version:  9
     \\/     M anipulation  |
\*---------------------------------------------------------------------------*/
FoamFile
{
    format      ascii;
    class       volScalarField;
    location    "0";
    object      nut;
}
// * * * * * * * * * * * * * * * * * * * * * * * * * * * * * * * * * * * * * //

dimensions      [0 2 -1 0 0 0 0];

internalField   uniform 4.48e-03;

boundaryField
{

    inlet
    {
        type            cyclic;
    }

    outlet
    {
        type            cyclic;
    }

     front
     {
         type            cyclic;
     }
     Back
     {
          type           cyclic;
     }

    top
    {
        type            calculated;
        value           uniform 3.00359e-18;
    }

    bottom
    {
        type            nutkWallFunction;
        value           uniform 3.00359e-18;
    }
   

}


// ************************************************************************* //
